---------- Begin Simulation Statistics ----------
final_tick                                   33544000                       # Number of ticks from beginning of simulation (restored from checkpoints and never reset)
host_inst_rate                                 118362                       # Simulator instruction rate (inst/s)
host_mem_usage                                 711604                       # Number of bytes of host memory used
host_op_rate                                   136095                       # Simulator op (including micro ops) rate (op/s)
host_seconds                                     0.13                       # Real time elapsed on the host
host_tick_rate                              252269328                       # Simulator tick rate (ticks/s)
sim_freq                                 1000000000000                       # Frequency of simulated ticks
sim_insts                                       15718                       # Number of instructions simulated
sim_ops                                         18091                       # Number of ops (including micro ops) simulated
sim_seconds                                  0.000034                       # Number of seconds simulated
sim_ticks                                    33544000                       # Number of ticks simulated
system.cpu.branchPred.BTBCorrect                    0                       # Number of correct BTB predictions (this stat may not work properly.
system.cpu.branchPred.BTBHitPct             31.769134                       # BTB Hit Percentage
system.cpu.branchPred.BTBHits                    1266                       # Number of BTB hits
system.cpu.branchPred.BTBLookups                 3985                       # Number of BTB lookups
system.cpu.branchPred.RASInCorrect                  8                       # Number of incorrect RAS predictions.
system.cpu.branchPred.condIncorrect               680                       # Number of conditional branches incorrect
system.cpu.branchPred.condPredicted              3206                       # Number of conditional branches predicted
system.cpu.branchPred.indirectHits                 94                       # Number of indirect target hits.
system.cpu.branchPred.indirectLookups             283                       # Number of indirect predictor lookups.
system.cpu.branchPred.indirectMisses              189                       # Number of indirect misses.
system.cpu.branchPred.lookups                    4890                       # Number of BP lookups
system.cpu.branchPred.usedRAS                     413                       # Number of times the RAS was used to get a target.
system.cpu.branchPredindirectMispredicted           84                       # Number of mispredicted indirect branches.
system.cpu.committedInsts                       15718                       # Number of instructions committed
system.cpu.committedOps                         18091                       # Number of ops (including micro ops) committed
system.cpu.cpi                               8.536455                       # CPI: cycles per instruction
system.cpu.discardedOps                          2095                       # Number of ops (including micro ops) which were discarded before commit
system.cpu.dtb.accesses                             0                       # DTB accesses
system.cpu.dtb.align_faults                         0                       # Number of TLB faults due to alignment restrictions
system.cpu.dtb.domain_faults                        0                       # Number of TLB faults due to domain restrictions
system.cpu.dtb.flush_entries                        0                       # Number of entries that have been flushed from TLB
system.cpu.dtb.flush_tlb                            0                       # Number of times complete TLB was flushed
system.cpu.dtb.flush_tlb_asid                       0                       # Number of times TLB was flushed by ASID
system.cpu.dtb.flush_tlb_mva                        0                       # Number of times TLB was flushed by MVA
system.cpu.dtb.flush_tlb_mva_asid                   0                       # Number of times TLB was flushed by MVA & ASID
system.cpu.dtb.hits                                 0                       # DTB hits
system.cpu.dtb.inst_accesses                        0                       # ITB inst accesses
system.cpu.dtb.inst_hits                            0                       # ITB inst hits
system.cpu.dtb.inst_misses                          0                       # ITB inst misses
system.cpu.dtb.misses                               0                       # DTB misses
system.cpu.dtb.perms_faults                         0                       # Number of TLB faults due to permissions restrictions
system.cpu.dtb.prefetch_faults                      0                       # Number of TLB faults due to prefetch
system.cpu.dtb.read_accesses                        0                       # DTB read accesses
system.cpu.dtb.read_hits                            0                       # DTB read hits
system.cpu.dtb.read_misses                          0                       # DTB read misses
system.cpu.dtb.stage2_mmu.stage2_tlb.accesses            0                       # DTB accesses
system.cpu.dtb.stage2_mmu.stage2_tlb.align_faults            0                       # Number of TLB faults due to alignment restrictions
system.cpu.dtb.stage2_mmu.stage2_tlb.domain_faults            0                       # Number of TLB faults due to domain restrictions
system.cpu.dtb.stage2_mmu.stage2_tlb.flush_entries            0                       # Number of entries that have been flushed from TLB
system.cpu.dtb.stage2_mmu.stage2_tlb.flush_tlb            0                       # Number of times complete TLB was flushed
system.cpu.dtb.stage2_mmu.stage2_tlb.flush_tlb_asid            0                       # Number of times TLB was flushed by ASID
system.cpu.dtb.stage2_mmu.stage2_tlb.flush_tlb_mva            0                       # Number of times TLB was flushed by MVA
system.cpu.dtb.stage2_mmu.stage2_tlb.flush_tlb_mva_asid            0                       # Number of times TLB was flushed by MVA & ASID
system.cpu.dtb.stage2_mmu.stage2_tlb.hits            0                       # DTB hits
system.cpu.dtb.stage2_mmu.stage2_tlb.inst_accesses            0                       # ITB inst accesses
system.cpu.dtb.stage2_mmu.stage2_tlb.inst_hits            0                       # ITB inst hits
system.cpu.dtb.stage2_mmu.stage2_tlb.inst_misses            0                       # ITB inst misses
system.cpu.dtb.stage2_mmu.stage2_tlb.misses            0                       # DTB misses
system.cpu.dtb.stage2_mmu.stage2_tlb.perms_faults            0                       # Number of TLB faults due to permissions restrictions
system.cpu.dtb.stage2_mmu.stage2_tlb.prefetch_faults            0                       # Number of TLB faults due to prefetch
system.cpu.dtb.stage2_mmu.stage2_tlb.read_accesses            0                       # DTB read accesses
system.cpu.dtb.stage2_mmu.stage2_tlb.read_hits            0                       # DTB read hits
system.cpu.dtb.stage2_mmu.stage2_tlb.read_misses            0                       # DTB read misses
system.cpu.dtb.stage2_mmu.stage2_tlb.walker.walkRequestOrigin_Requested::Data            0                       # Table walker requests started/completed, data/inst
system.cpu.dtb.stage2_mmu.stage2_tlb.walker.walkRequestOrigin_Requested::Inst            0                       # Table walker requests started/completed, data/inst
system.cpu.dtb.stage2_mmu.stage2_tlb.walker.walkRequestOrigin_Requested::total            0                       # Table walker requests started/completed, data/inst
system.cpu.dtb.stage2_mmu.stage2_tlb.walker.walkRequestOrigin_Completed::Data            0                       # Table walker requests started/completed, data/inst
system.cpu.dtb.stage2_mmu.stage2_tlb.walker.walkRequestOrigin_Completed::Inst            0                       # Table walker requests started/completed, data/inst
system.cpu.dtb.stage2_mmu.stage2_tlb.walker.walkRequestOrigin_Completed::total            0                       # Table walker requests started/completed, data/inst
system.cpu.dtb.stage2_mmu.stage2_tlb.walker.walkRequestOrigin::total            0                       # Table walker requests started/completed, data/inst
system.cpu.dtb.stage2_mmu.stage2_tlb.walker.walks            0                       # Table walker walks requested
system.cpu.dtb.stage2_mmu.stage2_tlb.write_accesses            0                       # DTB write accesses
system.cpu.dtb.stage2_mmu.stage2_tlb.write_hits            0                       # DTB write hits
system.cpu.dtb.stage2_mmu.stage2_tlb.write_misses            0                       # DTB write misses
system.cpu.dtb.walker.walkRequestOrigin_Requested::Data            0                       # Table walker requests started/completed, data/inst
system.cpu.dtb.walker.walkRequestOrigin_Requested::Inst            0                       # Table walker requests started/completed, data/inst
system.cpu.dtb.walker.walkRequestOrigin_Requested::total            0                       # Table walker requests started/completed, data/inst
system.cpu.dtb.walker.walkRequestOrigin_Completed::Data            0                       # Table walker requests started/completed, data/inst
system.cpu.dtb.walker.walkRequestOrigin_Completed::Inst            0                       # Table walker requests started/completed, data/inst
system.cpu.dtb.walker.walkRequestOrigin_Completed::total            0                       # Table walker requests started/completed, data/inst
system.cpu.dtb.walker.walkRequestOrigin::total            0                       # Table walker requests started/completed, data/inst
system.cpu.dtb.walker.walks                         0                       # Table walker walks requested
system.cpu.dtb.write_accesses                       0                       # DTB write accesses
system.cpu.dtb.write_hits                           0                       # DTB write hits
system.cpu.dtb.write_misses                         0                       # DTB write misses
system.cpu.fetch2.amo_instructions                  0                       # Number of memory atomic instructions successfully decoded
system.cpu.fetch2.fp_instructions                   0                       # Number of floating point instructions successfully decoded
system.cpu.fetch2.int_instructions              13710                       # Number of integer instructions successfully decoded
system.cpu.fetch2.load_instructions              3108                       # Number of memory load instructions successfully decoded
system.cpu.fetch2.store_instructions             1653                       # Number of memory store instructions successfully decoded
system.cpu.fetch2.vec_instructions                  0                       # Number of SIMD instructions successfully decoded
system.cpu.idleCycles                          107515                       # Total number of cycles that the object has spent stopped
system.cpu.ipc                               0.117145                       # IPC: instructions per cycle
system.cpu.itb.accesses                             0                       # DTB accesses
system.cpu.itb.align_faults                         0                       # Number of TLB faults due to alignment restrictions
system.cpu.itb.domain_faults                        0                       # Number of TLB faults due to domain restrictions
system.cpu.itb.flush_entries                        0                       # Number of entries that have been flushed from TLB
system.cpu.itb.flush_tlb                            0                       # Number of times complete TLB was flushed
system.cpu.itb.flush_tlb_asid                       0                       # Number of times TLB was flushed by ASID
system.cpu.itb.flush_tlb_mva                        0                       # Number of times TLB was flushed by MVA
system.cpu.itb.flush_tlb_mva_asid                   0                       # Number of times TLB was flushed by MVA & ASID
system.cpu.itb.hits                                 0                       # DTB hits
system.cpu.itb.inst_accesses                        0                       # ITB inst accesses
system.cpu.itb.inst_hits                            0                       # ITB inst hits
system.cpu.itb.inst_misses                          0                       # ITB inst misses
system.cpu.itb.misses                               0                       # DTB misses
system.cpu.itb.perms_faults                         0                       # Number of TLB faults due to permissions restrictions
system.cpu.itb.prefetch_faults                      0                       # Number of TLB faults due to prefetch
system.cpu.itb.read_accesses                        0                       # DTB read accesses
system.cpu.itb.read_hits                            0                       # DTB read hits
system.cpu.itb.read_misses                          0                       # DTB read misses
system.cpu.itb.stage2_mmu.stage2_tlb.accesses            0                       # DTB accesses
system.cpu.itb.stage2_mmu.stage2_tlb.align_faults            0                       # Number of TLB faults due to alignment restrictions
system.cpu.itb.stage2_mmu.stage2_tlb.domain_faults            0                       # Number of TLB faults due to domain restrictions
system.cpu.itb.stage2_mmu.stage2_tlb.flush_entries            0                       # Number of entries that have been flushed from TLB
system.cpu.itb.stage2_mmu.stage2_tlb.flush_tlb            0                       # Number of times complete TLB was flushed
system.cpu.itb.stage2_mmu.stage2_tlb.flush_tlb_asid            0                       # Number of times TLB was flushed by ASID
system.cpu.itb.stage2_mmu.stage2_tlb.flush_tlb_mva            0                       # Number of times TLB was flushed by MVA
system.cpu.itb.stage2_mmu.stage2_tlb.flush_tlb_mva_asid            0                       # Number of times TLB was flushed by MVA & ASID
system.cpu.itb.stage2_mmu.stage2_tlb.hits            0                       # DTB hits
system.cpu.itb.stage2_mmu.stage2_tlb.inst_accesses            0                       # ITB inst accesses
system.cpu.itb.stage2_mmu.stage2_tlb.inst_hits            0                       # ITB inst hits
system.cpu.itb.stage2_mmu.stage2_tlb.inst_misses            0                       # ITB inst misses
system.cpu.itb.stage2_mmu.stage2_tlb.misses            0                       # DTB misses
system.cpu.itb.stage2_mmu.stage2_tlb.perms_faults            0                       # Number of TLB faults due to permissions restrictions
system.cpu.itb.stage2_mmu.stage2_tlb.prefetch_faults            0                       # Number of TLB faults due to prefetch
system.cpu.itb.stage2_mmu.stage2_tlb.read_accesses            0                       # DTB read accesses
system.cpu.itb.stage2_mmu.stage2_tlb.read_hits            0                       # DTB read hits
system.cpu.itb.stage2_mmu.stage2_tlb.read_misses            0                       # DTB read misses
system.cpu.itb.stage2_mmu.stage2_tlb.walker.walkRequestOrigin_Requested::Data            0                       # Table walker requests started/completed, data/inst
system.cpu.itb.stage2_mmu.stage2_tlb.walker.walkRequestOrigin_Requested::Inst            0                       # Table walker requests started/completed, data/inst
system.cpu.itb.stage2_mmu.stage2_tlb.walker.walkRequestOrigin_Requested::total            0                       # Table walker requests started/completed, data/inst
system.cpu.itb.stage2_mmu.stage2_tlb.walker.walkRequestOrigin_Completed::Data            0                       # Table walker requests started/completed, data/inst
system.cpu.itb.stage2_mmu.stage2_tlb.walker.walkRequestOrigin_Completed::Inst            0                       # Table walker requests started/completed, data/inst
system.cpu.itb.stage2_mmu.stage2_tlb.walker.walkRequestOrigin_Completed::total            0                       # Table walker requests started/completed, data/inst
system.cpu.itb.stage2_mmu.stage2_tlb.walker.walkRequestOrigin::total            0                       # Table walker requests started/completed, data/inst
system.cpu.itb.stage2_mmu.stage2_tlb.walker.walks            0                       # Table walker walks requested
system.cpu.itb.stage2_mmu.stage2_tlb.write_accesses            0                       # DTB write accesses
system.cpu.itb.stage2_mmu.stage2_tlb.write_hits            0                       # DTB write hits
system.cpu.itb.stage2_mmu.stage2_tlb.write_misses            0                       # DTB write misses
system.cpu.itb.walker.walkRequestOrigin_Requested::Data            0                       # Table walker requests started/completed, data/inst
system.cpu.itb.walker.walkRequestOrigin_Requested::Inst            0                       # Table walker requests started/completed, data/inst
system.cpu.itb.walker.walkRequestOrigin_Requested::total            0                       # Table walker requests started/completed, data/inst
system.cpu.itb.walker.walkRequestOrigin_Completed::Data            0                       # Table walker requests started/completed, data/inst
system.cpu.itb.walker.walkRequestOrigin_Completed::Inst            0                       # Table walker requests started/completed, data/inst
system.cpu.itb.walker.walkRequestOrigin_Completed::total            0                       # Table walker requests started/completed, data/inst
system.cpu.itb.walker.walkRequestOrigin::total            0                       # Table walker requests started/completed, data/inst
system.cpu.itb.walker.walks                         0                       # Table walker walks requested
system.cpu.itb.write_accesses                       0                       # DTB write accesses
system.cpu.itb.write_hits                           0                       # DTB write hits
system.cpu.itb.write_misses                         0                       # DTB write misses
system.cpu.numCycles                           134176                       # number of cpu cycles simulated
system.cpu.numFetchSuspends                         0                       # Number of times Execute suspended instruction fetching
system.cpu.numWorkItemsCompleted                    0                       # number of work items this cpu completed
system.cpu.numWorkItemsStarted                      0                       # number of work items this cpu started
system.cpu.op_class_0::No_OpClass                   0      0.00%      0.00% # Class of committed instruction
system.cpu.op_class_0::IntAlu                   12728     70.36%     70.36% # Class of committed instruction
system.cpu.op_class_0::IntMult                     74      0.41%     70.76% # Class of committed instruction
system.cpu.op_class_0::IntDiv                       0      0.00%     70.76% # Class of committed instruction
system.cpu.op_class_0::FloatAdd                     0      0.00%     70.76% # Class of committed instruction
system.cpu.op_class_0::FloatCmp                     0      0.00%     70.76% # Class of committed instruction
system.cpu.op_class_0::FloatCvt                     0      0.00%     70.76% # Class of committed instruction
system.cpu.op_class_0::FloatMult                    0      0.00%     70.76% # Class of committed instruction
system.cpu.op_class_0::FloatMultAcc                 0      0.00%     70.76% # Class of committed instruction
system.cpu.op_class_0::FloatDiv                     0      0.00%     70.76% # Class of committed instruction
system.cpu.op_class_0::FloatMisc                    0      0.00%     70.76% # Class of committed instruction
system.cpu.op_class_0::FloatSqrt                    0      0.00%     70.76% # Class of committed instruction
system.cpu.op_class_0::SimdAdd                      0      0.00%     70.76% # Class of committed instruction
system.cpu.op_class_0::SimdAddAcc                   0      0.00%     70.76% # Class of committed instruction
system.cpu.op_class_0::SimdAlu                      0      0.00%     70.76% # Class of committed instruction
system.cpu.op_class_0::SimdCmp                      0      0.00%     70.76% # Class of committed instruction
system.cpu.op_class_0::SimdCvt                      0      0.00%     70.76% # Class of committed instruction
system.cpu.op_class_0::SimdMisc                     0      0.00%     70.76% # Class of committed instruction
system.cpu.op_class_0::SimdMult                     0      0.00%     70.76% # Class of committed instruction
system.cpu.op_class_0::SimdMultAcc                  0      0.00%     70.76% # Class of committed instruction
system.cpu.op_class_0::SimdShift                    0      0.00%     70.76% # Class of committed instruction
system.cpu.op_class_0::SimdShiftAcc                 0      0.00%     70.76% # Class of committed instruction
system.cpu.op_class_0::SimdDiv                      0      0.00%     70.76% # Class of committed instruction
system.cpu.op_class_0::SimdSqrt                     0      0.00%     70.76% # Class of committed instruction
system.cpu.op_class_0::SimdFloatAdd                 0      0.00%     70.76% # Class of committed instruction
system.cpu.op_class_0::SimdFloatAlu                 0      0.00%     70.76% # Class of committed instruction
system.cpu.op_class_0::SimdFloatCmp                 0      0.00%     70.76% # Class of committed instruction
system.cpu.op_class_0::SimdFloatCvt                 0      0.00%     70.76% # Class of committed instruction
system.cpu.op_class_0::SimdFloatDiv                 0      0.00%     70.76% # Class of committed instruction
system.cpu.op_class_0::SimdFloatMisc                0      0.00%     70.76% # Class of committed instruction
system.cpu.op_class_0::SimdFloatMult                0      0.00%     70.76% # Class of committed instruction
system.cpu.op_class_0::SimdFloatMultAcc             0      0.00%     70.76% # Class of committed instruction
system.cpu.op_class_0::SimdFloatSqrt                0      0.00%     70.76% # Class of committed instruction
system.cpu.op_class_0::SimdReduceAdd                0      0.00%     70.76% # Class of committed instruction
system.cpu.op_class_0::SimdReduceAlu                0      0.00%     70.76% # Class of committed instruction
system.cpu.op_class_0::SimdReduceCmp                0      0.00%     70.76% # Class of committed instruction
system.cpu.op_class_0::SimdFloatReduceAdd            0      0.00%     70.76% # Class of committed instruction
system.cpu.op_class_0::SimdFloatReduceCmp            0      0.00%     70.76% # Class of committed instruction
system.cpu.op_class_0::SimdAes                      0      0.00%     70.76% # Class of committed instruction
system.cpu.op_class_0::SimdAesMix                   0      0.00%     70.76% # Class of committed instruction
system.cpu.op_class_0::SimdSha1Hash                 0      0.00%     70.76% # Class of committed instruction
system.cpu.op_class_0::SimdSha1Hash2                0      0.00%     70.76% # Class of committed instruction
system.cpu.op_class_0::SimdSha256Hash               0      0.00%     70.76% # Class of committed instruction
system.cpu.op_class_0::SimdSha256Hash2              0      0.00%     70.76% # Class of committed instruction
system.cpu.op_class_0::SimdShaSigma2                0      0.00%     70.76% # Class of committed instruction
system.cpu.op_class_0::SimdShaSigma3                0      0.00%     70.76% # Class of committed instruction
system.cpu.op_class_0::SimdPredAlu                  0      0.00%     70.76% # Class of committed instruction
system.cpu.op_class_0::MemRead                   2818     15.58%     86.34% # Class of committed instruction
system.cpu.op_class_0::MemWrite                  2471     13.66%    100.00% # Class of committed instruction
system.cpu.op_class_0::FloatMemRead                 0      0.00%    100.00% # Class of committed instruction
system.cpu.op_class_0::FloatMemWrite                0      0.00%    100.00% # Class of committed instruction
system.cpu.op_class_0::IprAccess                    0      0.00%    100.00% # Class of committed instruction
system.cpu.op_class_0::InstPrefetch                 0      0.00%    100.00% # Class of committed instruction
system.cpu.op_class_0::total                    18091                       # Class of committed instruction
system.cpu.tickCycles                           26661                       # Number of cycles that the object actually ticked
system.cpu.workload.numSyscalls                    14                       # Number of system calls
system.membus.snoop_filter.hit_multi_requests            4                       # Number of requests hitting in the snoop filter with multiple (>1) holders of the requested data.
system.membus.snoop_filter.hit_multi_snoops            0                       # Number of snoops hitting in the snoop filter with multiple (>1) holders of the requested data.
system.membus.snoop_filter.hit_single_requests          101                       # Number of requests hitting in the snoop filter with a single holder of the requested data.
system.membus.snoop_filter.hit_single_snoops            0                       # Number of snoops hitting in the snoop filter with a single holder of the requested data.
system.membus.snoop_filter.tot_requests           674                       # Total number of requests made to the snoop filter.
system.membus.snoop_filter.tot_snoops               0                       # Total number of snoops made to the snoop filter.
system.membus.pwrStateResidencyTicks::UNDEFINED     33544000                       # Cumulative time (in ticks) in various power states
system.membus.trans_dist::ReadResp                521                       # Transaction distribution
system.membus.trans_dist::WritebackClean           83                       # Transaction distribution
system.membus.trans_dist::ReadExReq                70                       # Transaction distribution
system.membus.trans_dist::ReadExResp               70                       # Transaction distribution
system.membus.trans_dist::ReadCleanReq            426                       # Transaction distribution
system.membus.trans_dist::ReadSharedReq            95                       # Transaction distribution
system.membus.pkt_count_system.cpu.icache.mem_side::system.mem_ctrls.port          935                       # Packet count per connected master and slave (bytes)
system.membus.pkt_count_system.cpu.dcache.mem_side::system.mem_ctrls.port          330                       # Packet count per connected master and slave (bytes)
system.membus.pkt_count::total                   1265                       # Packet count per connected master and slave (bytes)
system.membus.pkt_size_system.cpu.icache.mem_side::system.mem_ctrls.port        32576                       # Cumulative packet size per connected master and slave (bytes)
system.membus.pkt_size_system.cpu.dcache.mem_side::system.mem_ctrls.port        10560                       # Cumulative packet size per connected master and slave (bytes)
system.membus.pkt_size::total                   43136                       # Cumulative packet size per connected master and slave (bytes)
system.membus.snoops                                0                       # Total snoops (count)
system.membus.snoopTraffic                          0                       # Total snoop traffic (bytes)
system.membus.snoop_fanout::samples               591                       # Request fanout histogram
system.membus.snoop_fanout::mean             0.037225                       # Request fanout histogram
system.membus.snoop_fanout::stdev            0.189473                       # Request fanout histogram
system.membus.snoop_fanout::underflows              0      0.00%      0.00% # Request fanout histogram
system.membus.snoop_fanout::0                     569     96.28%     96.28% # Request fanout histogram
system.membus.snoop_fanout::1                      22      3.72%    100.00% # Request fanout histogram
system.membus.snoop_fanout::2                       0      0.00%    100.00% # Request fanout histogram
system.membus.snoop_fanout::overflows               0      0.00%    100.00% # Request fanout histogram
system.membus.snoop_fanout::min_value               0                       # Request fanout histogram
system.membus.snoop_fanout::max_value               1                       # Request fanout histogram
system.membus.snoop_fanout::total                 591                       # Request fanout histogram
system.membus.reqLayer0.occupancy             1255750                       # Layer occupancy (ticks)
system.membus.reqLayer0.utilization               3.7                       # Layer utilization (%)
system.membus.respLayer1.occupancy            2259750                       # Layer occupancy (ticks)
system.membus.respLayer1.utilization              6.7                       # Layer utilization (%)
system.membus.respLayer2.occupancy             889250                       # Layer occupancy (ticks)
system.membus.respLayer2.utilization              2.7                       # Layer utilization (%)
system.voltage_domain.voltage                       1                       # Voltage in Volts
system.clk_domain.clock                          1000                       # Clock period in ticks
system.cpu_voltage_domain.voltage                   1                       # Voltage in Volts
system.mem_ctrls.pwrStateResidencyTicks::UNDEFINED     33544000                       # Cumulative time (in ticks) in various power states
system.mem_ctrls.bytes_read::.cpu.inst          27264                       # Number of bytes read from this memory
system.mem_ctrls.bytes_read::.cpu.data          10560                       # Number of bytes read from this memory
system.mem_ctrls.bytes_read::total              37824                       # Number of bytes read from this memory
system.mem_ctrls.bytes_inst_read::.cpu.inst        27264                       # Number of instructions bytes read from this memory
system.mem_ctrls.bytes_inst_read::total         27264                       # Number of instructions bytes read from this memory
system.mem_ctrls.num_reads::.cpu.inst             426                       # Number of read requests responded to by this memory
system.mem_ctrls.num_reads::.cpu.data             165                       # Number of read requests responded to by this memory
system.mem_ctrls.num_reads::total                 591                       # Number of read requests responded to by this memory
system.mem_ctrls.bw_read::.cpu.inst         812783210                       # Total read bandwidth from this memory (bytes/s)
system.mem_ctrls.bw_read::.cpu.data         314810398                       # Total read bandwidth from this memory (bytes/s)
system.mem_ctrls.bw_read::total            1127593608                       # Total read bandwidth from this memory (bytes/s)
system.mem_ctrls.bw_inst_read::.cpu.inst    812783210                       # Instruction read bandwidth from this memory (bytes/s)
system.mem_ctrls.bw_inst_read::total        812783210                       # Instruction read bandwidth from this memory (bytes/s)
system.mem_ctrls.bw_total::.cpu.inst        812783210                       # Total bandwidth to/from this memory (bytes/s)
system.mem_ctrls.bw_total::.cpu.data        314810398                       # Total bandwidth to/from this memory (bytes/s)
system.mem_ctrls.bw_total::total           1127593608                       # Total bandwidth to/from this memory (bytes/s)
system.mem_ctrls.avgPriority_.writebacks::samples        79.00                       # Average QoS priority value for accepted requests
system.mem_ctrls.avgPriority_.cpu.inst::samples       412.00                       # Average QoS priority value for accepted requests
system.mem_ctrls.avgPriority_.cpu.data::samples       165.00                       # Average QoS priority value for accepted requests
system.mem_ctrls.priorityMinLatency      0.000000018750                       # per QoS priority minimum request to response latency (s)
system.mem_ctrls.priorityMaxLatency      0.000023391750                       # per QoS priority maximum request to response latency (s)
system.mem_ctrls.numReadWriteTurnArounds            3                       # Number of turnarounds from READ to WRITE
system.mem_ctrls.numWriteReadTurnArounds            3                       # Number of turnarounds from WRITE to READ
system.mem_ctrls.numStayReadState                1233                       # Number of times bus staying in READ state
system.mem_ctrls.numStayWriteState                 45                       # Number of times bus staying in WRITE state
system.mem_ctrls.readReqs                         591                       # Number of read requests accepted
system.mem_ctrls.writeReqs                         79                       # Number of write requests accepted
system.mem_ctrls.readBursts                       591                       # Number of DRAM read bursts, including those serviced by the write queue
system.mem_ctrls.writeBursts                       79                       # Number of DRAM write bursts, including those merged in the write queue
system.mem_ctrls.servicedByWrQ                     14                       # Number of DRAM read bursts serviced by the write queue
system.mem_ctrls.mergedWrBursts                     0                       # Number of DRAM write bursts merged with an existing one
system.mem_ctrls.neitherReadNorWriteReqs            0                       # Number of requests that are neither read nor write
system.mem_ctrls.perBankRdBursts::0                47                       # Per bank write bursts
system.mem_ctrls.perBankRdBursts::1                 2                       # Per bank write bursts
system.mem_ctrls.perBankRdBursts::2                22                       # Per bank write bursts
system.mem_ctrls.perBankRdBursts::3                32                       # Per bank write bursts
system.mem_ctrls.perBankRdBursts::4                54                       # Per bank write bursts
system.mem_ctrls.perBankRdBursts::5                48                       # Per bank write bursts
system.mem_ctrls.perBankRdBursts::6                45                       # Per bank write bursts
system.mem_ctrls.perBankRdBursts::7               110                       # Per bank write bursts
system.mem_ctrls.perBankRdBursts::8                56                       # Per bank write bursts
system.mem_ctrls.perBankRdBursts::9                79                       # Per bank write bursts
system.mem_ctrls.perBankRdBursts::10                5                       # Per bank write bursts
system.mem_ctrls.perBankRdBursts::11               12                       # Per bank write bursts
system.mem_ctrls.perBankRdBursts::12                5                       # Per bank write bursts
system.mem_ctrls.perBankRdBursts::13               16                       # Per bank write bursts
system.mem_ctrls.perBankRdBursts::14                0                       # Per bank write bursts
system.mem_ctrls.perBankRdBursts::15               44                       # Per bank write bursts
system.mem_ctrls.perBankWrBursts::0                10                       # Per bank write bursts
system.mem_ctrls.perBankWrBursts::1                 0                       # Per bank write bursts
system.mem_ctrls.perBankWrBursts::2                 0                       # Per bank write bursts
system.mem_ctrls.perBankWrBursts::3                 0                       # Per bank write bursts
system.mem_ctrls.perBankWrBursts::4                 3                       # Per bank write bursts
system.mem_ctrls.perBankWrBursts::5                10                       # Per bank write bursts
system.mem_ctrls.perBankWrBursts::6                 6                       # Per bank write bursts
system.mem_ctrls.perBankWrBursts::7                 7                       # Per bank write bursts
system.mem_ctrls.perBankWrBursts::8                 3                       # Per bank write bursts
system.mem_ctrls.perBankWrBursts::9                 6                       # Per bank write bursts
system.mem_ctrls.perBankWrBursts::10                0                       # Per bank write bursts
system.mem_ctrls.perBankWrBursts::11                3                       # Per bank write bursts
system.mem_ctrls.perBankWrBursts::12                0                       # Per bank write bursts
system.mem_ctrls.perBankWrBursts::13                0                       # Per bank write bursts
system.mem_ctrls.perBankWrBursts::14                0                       # Per bank write bursts
system.mem_ctrls.perBankWrBursts::15                0                       # Per bank write bursts
system.mem_ctrls.avgRdQLen                       1.16                       # Average read queue length when enqueuing
system.mem_ctrls.avgWrQLen                      12.44                       # Average write queue length when enqueuing
system.mem_ctrls.totQLat                      3805000                       # Total ticks spent queuing
system.mem_ctrls.totBusLat                    2885000                       # Total ticks spent in databus transfers
system.mem_ctrls.totMemAccLat                14623750                       # Total ticks spent from burst creation until serviced by the DRAM
system.mem_ctrls.avgQLat                      6594.45                       # Average queueing delay per DRAM burst
system.mem_ctrls.avgBusLat                    5000.00                       # Average bus latency per DRAM burst
system.mem_ctrls.avgMemAccLat                25344.45                       # Average memory access latency per DRAM burst
system.mem_ctrls.numRdRetry                         0                       # Number of times read queue was full causing retry
system.mem_ctrls.numWrRetry                         0                       # Number of times write queue was full causing retry
system.mem_ctrls.readRowHits                      469                       # Number of row buffer hits during reads
system.mem_ctrls.writeRowHits                      40                       # Number of row buffer hits during writes
system.mem_ctrls.readRowHitRate                 81.28                       # Row buffer hit rate for reads
system.mem_ctrls.writeRowHitRate                50.63                       # Row buffer hit rate for writes
system.mem_ctrls.readPktSize::0                     0                       # Read request sizes (log2)
system.mem_ctrls.readPktSize::1                     0                       # Read request sizes (log2)
system.mem_ctrls.readPktSize::2                     0                       # Read request sizes (log2)
system.mem_ctrls.readPktSize::3                     0                       # Read request sizes (log2)
system.mem_ctrls.readPktSize::4                     0                       # Read request sizes (log2)
system.mem_ctrls.readPktSize::5                     0                       # Read request sizes (log2)
system.mem_ctrls.readPktSize::6                   591                       # Read request sizes (log2)
system.mem_ctrls.writePktSize::0                    0                       # Write request sizes (log2)
system.mem_ctrls.writePktSize::1                    0                       # Write request sizes (log2)
system.mem_ctrls.writePktSize::2                    0                       # Write request sizes (log2)
system.mem_ctrls.writePktSize::3                    0                       # Write request sizes (log2)
system.mem_ctrls.writePktSize::4                    0                       # Write request sizes (log2)
system.mem_ctrls.writePktSize::5                    0                       # Write request sizes (log2)
system.mem_ctrls.writePktSize::6                   79                       # Write request sizes (log2)
system.mem_ctrls.rdQLenPdf::0                     486                       # What read queue length does an incoming req see
system.mem_ctrls.rdQLenPdf::1                      85                       # What read queue length does an incoming req see
system.mem_ctrls.rdQLenPdf::2                       6                       # What read queue length does an incoming req see
system.mem_ctrls.rdQLenPdf::3                       0                       # What read queue length does an incoming req see
system.mem_ctrls.rdQLenPdf::4                       0                       # What read queue length does an incoming req see
system.mem_ctrls.rdQLenPdf::5                       0                       # What read queue length does an incoming req see
system.mem_ctrls.rdQLenPdf::6                       0                       # What read queue length does an incoming req see
system.mem_ctrls.rdQLenPdf::7                       0                       # What read queue length does an incoming req see
system.mem_ctrls.rdQLenPdf::8                       0                       # What read queue length does an incoming req see
system.mem_ctrls.rdQLenPdf::9                       0                       # What read queue length does an incoming req see
system.mem_ctrls.rdQLenPdf::10                      0                       # What read queue length does an incoming req see
system.mem_ctrls.rdQLenPdf::11                      0                       # What read queue length does an incoming req see
system.mem_ctrls.rdQLenPdf::12                      0                       # What read queue length does an incoming req see
system.mem_ctrls.rdQLenPdf::13                      0                       # What read queue length does an incoming req see
system.mem_ctrls.rdQLenPdf::14                      0                       # What read queue length does an incoming req see
system.mem_ctrls.rdQLenPdf::15                      0                       # What read queue length does an incoming req see
system.mem_ctrls.rdQLenPdf::16                      0                       # What read queue length does an incoming req see
system.mem_ctrls.rdQLenPdf::17                      0                       # What read queue length does an incoming req see
system.mem_ctrls.rdQLenPdf::18                      0                       # What read queue length does an incoming req see
system.mem_ctrls.rdQLenPdf::19                      0                       # What read queue length does an incoming req see
system.mem_ctrls.rdQLenPdf::20                      0                       # What read queue length does an incoming req see
system.mem_ctrls.rdQLenPdf::21                      0                       # What read queue length does an incoming req see
system.mem_ctrls.rdQLenPdf::22                      0                       # What read queue length does an incoming req see
system.mem_ctrls.rdQLenPdf::23                      0                       # What read queue length does an incoming req see
system.mem_ctrls.rdQLenPdf::24                      0                       # What read queue length does an incoming req see
system.mem_ctrls.rdQLenPdf::25                      0                       # What read queue length does an incoming req see
system.mem_ctrls.rdQLenPdf::26                      0                       # What read queue length does an incoming req see
system.mem_ctrls.rdQLenPdf::27                      0                       # What read queue length does an incoming req see
system.mem_ctrls.rdQLenPdf::28                      0                       # What read queue length does an incoming req see
system.mem_ctrls.rdQLenPdf::29                      0                       # What read queue length does an incoming req see
system.mem_ctrls.rdQLenPdf::30                      0                       # What read queue length does an incoming req see
system.mem_ctrls.rdQLenPdf::31                      0                       # What read queue length does an incoming req see
system.mem_ctrls.wrQLenPdf::0                       1                       # What write queue length does an incoming req see
system.mem_ctrls.wrQLenPdf::1                       1                       # What write queue length does an incoming req see
system.mem_ctrls.wrQLenPdf::2                       1                       # What write queue length does an incoming req see
system.mem_ctrls.wrQLenPdf::3                       1                       # What write queue length does an incoming req see
system.mem_ctrls.wrQLenPdf::4                       1                       # What write queue length does an incoming req see
system.mem_ctrls.wrQLenPdf::5                       1                       # What write queue length does an incoming req see
system.mem_ctrls.wrQLenPdf::6                       1                       # What write queue length does an incoming req see
system.mem_ctrls.wrQLenPdf::7                       1                       # What write queue length does an incoming req see
system.mem_ctrls.wrQLenPdf::8                       1                       # What write queue length does an incoming req see
system.mem_ctrls.wrQLenPdf::9                       1                       # What write queue length does an incoming req see
system.mem_ctrls.wrQLenPdf::10                      1                       # What write queue length does an incoming req see
system.mem_ctrls.wrQLenPdf::11                      1                       # What write queue length does an incoming req see
system.mem_ctrls.wrQLenPdf::12                      1                       # What write queue length does an incoming req see
system.mem_ctrls.wrQLenPdf::13                      1                       # What write queue length does an incoming req see
system.mem_ctrls.wrQLenPdf::14                      1                       # What write queue length does an incoming req see
system.mem_ctrls.wrQLenPdf::15                      1                       # What write queue length does an incoming req see
system.mem_ctrls.wrQLenPdf::16                      1                       # What write queue length does an incoming req see
system.mem_ctrls.wrQLenPdf::17                      4                       # What write queue length does an incoming req see
system.mem_ctrls.wrQLenPdf::18                      4                       # What write queue length does an incoming req see
system.mem_ctrls.wrQLenPdf::19                      4                       # What write queue length does an incoming req see
system.mem_ctrls.wrQLenPdf::20                      4                       # What write queue length does an incoming req see
system.mem_ctrls.wrQLenPdf::21                      4                       # What write queue length does an incoming req see
system.mem_ctrls.wrQLenPdf::22                      4                       # What write queue length does an incoming req see
system.mem_ctrls.wrQLenPdf::23                      4                       # What write queue length does an incoming req see
system.mem_ctrls.wrQLenPdf::24                      4                       # What write queue length does an incoming req see
system.mem_ctrls.wrQLenPdf::25                      4                       # What write queue length does an incoming req see
system.mem_ctrls.wrQLenPdf::26                      4                       # What write queue length does an incoming req see
system.mem_ctrls.wrQLenPdf::27                      4                       # What write queue length does an incoming req see
system.mem_ctrls.wrQLenPdf::28                      4                       # What write queue length does an incoming req see
system.mem_ctrls.wrQLenPdf::29                      4                       # What write queue length does an incoming req see
system.mem_ctrls.wrQLenPdf::30                      4                       # What write queue length does an incoming req see
system.mem_ctrls.wrQLenPdf::31                      3                       # What write queue length does an incoming req see
system.mem_ctrls.wrQLenPdf::32                      3                       # What write queue length does an incoming req see
system.mem_ctrls.wrQLenPdf::33                      0                       # What write queue length does an incoming req see
system.mem_ctrls.wrQLenPdf::34                      0                       # What write queue length does an incoming req see
system.mem_ctrls.wrQLenPdf::35                      0                       # What write queue length does an incoming req see
system.mem_ctrls.wrQLenPdf::36                      0                       # What write queue length does an incoming req see
system.mem_ctrls.wrQLenPdf::37                      0                       # What write queue length does an incoming req see
system.mem_ctrls.wrQLenPdf::38                      0                       # What write queue length does an incoming req see
system.mem_ctrls.wrQLenPdf::39                      0                       # What write queue length does an incoming req see
system.mem_ctrls.wrQLenPdf::40                      0                       # What write queue length does an incoming req see
system.mem_ctrls.wrQLenPdf::41                      0                       # What write queue length does an incoming req see
system.mem_ctrls.wrQLenPdf::42                      0                       # What write queue length does an incoming req see
system.mem_ctrls.wrQLenPdf::43                      0                       # What write queue length does an incoming req see
system.mem_ctrls.wrQLenPdf::44                      0                       # What write queue length does an incoming req see
system.mem_ctrls.wrQLenPdf::45                      0                       # What write queue length does an incoming req see
system.mem_ctrls.wrQLenPdf::46                      0                       # What write queue length does an incoming req see
system.mem_ctrls.wrQLenPdf::47                      0                       # What write queue length does an incoming req see
system.mem_ctrls.wrQLenPdf::48                      0                       # What write queue length does an incoming req see
system.mem_ctrls.wrQLenPdf::49                      0                       # What write queue length does an incoming req see
system.mem_ctrls.wrQLenPdf::50                      0                       # What write queue length does an incoming req see
system.mem_ctrls.wrQLenPdf::51                      0                       # What write queue length does an incoming req see
system.mem_ctrls.wrQLenPdf::52                      0                       # What write queue length does an incoming req see
system.mem_ctrls.wrQLenPdf::53                      0                       # What write queue length does an incoming req see
system.mem_ctrls.wrQLenPdf::54                      0                       # What write queue length does an incoming req see
system.mem_ctrls.wrQLenPdf::55                      0                       # What write queue length does an incoming req see
system.mem_ctrls.wrQLenPdf::56                      0                       # What write queue length does an incoming req see
system.mem_ctrls.wrQLenPdf::57                      0                       # What write queue length does an incoming req see
system.mem_ctrls.wrQLenPdf::58                      0                       # What write queue length does an incoming req see
system.mem_ctrls.wrQLenPdf::59                      0                       # What write queue length does an incoming req see
system.mem_ctrls.wrQLenPdf::60                      0                       # What write queue length does an incoming req see
system.mem_ctrls.wrQLenPdf::61                      0                       # What write queue length does an incoming req see
system.mem_ctrls.wrQLenPdf::62                      0                       # What write queue length does an incoming req see
system.mem_ctrls.wrQLenPdf::63                      0                       # What write queue length does an incoming req see
system.mem_ctrls.bytesPerActivate::samples          109                       # Bytes accessed per row activation
system.mem_ctrls.bytesPerActivate::mean    351.706422                       # Bytes accessed per row activation
system.mem_ctrls.bytesPerActivate::gmean   237.939695                       # Bytes accessed per row activation
system.mem_ctrls.bytesPerActivate::stdev   309.471093                       # Bytes accessed per row activation
system.mem_ctrls.bytesPerActivate::0-127           23     21.10%     21.10% # Bytes accessed per row activation
system.mem_ctrls.bytesPerActivate::128-255           29     26.61%     47.71% # Bytes accessed per row activation
system.mem_ctrls.bytesPerActivate::256-383           21     19.27%     66.97% # Bytes accessed per row activation
system.mem_ctrls.bytesPerActivate::384-511           10      9.17%     76.15% # Bytes accessed per row activation
system.mem_ctrls.bytesPerActivate::512-639            6      5.50%     81.65% # Bytes accessed per row activation
system.mem_ctrls.bytesPerActivate::640-767            4      3.67%     85.32% # Bytes accessed per row activation
system.mem_ctrls.bytesPerActivate::768-895            2      1.83%     87.16% # Bytes accessed per row activation
system.mem_ctrls.bytesPerActivate::896-1023            2      1.83%     88.99% # Bytes accessed per row activation
system.mem_ctrls.bytesPerActivate::1024-1151           12     11.01%    100.00% # Bytes accessed per row activation
system.mem_ctrls.bytesPerActivate::total          109                       # Bytes accessed per row activation
system.mem_ctrls.rdPerTurnAround::samples            3                       # Reads before turning the bus around for writes
system.mem_ctrls.rdPerTurnAround::mean     169.333333                       # Reads before turning the bus around for writes
system.mem_ctrls.rdPerTurnAround::gmean    100.648848                       # Reads before turning the bus around for writes
system.mem_ctrls.rdPerTurnAround::stdev    206.693815                       # Reads before turning the bus around for writes
system.mem_ctrls.rdPerTurnAround::48-63             2     66.67%     66.67% # Reads before turning the bus around for writes
system.mem_ctrls.rdPerTurnAround::400-415            1     33.33%    100.00% # Reads before turning the bus around for writes
system.mem_ctrls.rdPerTurnAround::total             3                       # Reads before turning the bus around for writes
system.mem_ctrls.wrPerTurnAround::samples            3                       # Writes before turning the bus around for reads
system.mem_ctrls.wrPerTurnAround::mean             16                       # Writes before turning the bus around for reads
system.mem_ctrls.wrPerTurnAround::gmean     16.000000                       # Writes before turning the bus around for reads
system.mem_ctrls.wrPerTurnAround::16                3    100.00%    100.00% # Writes before turning the bus around for reads
system.mem_ctrls.wrPerTurnAround::total             3                       # Writes before turning the bus around for reads
system.mem_ctrls.bytesReadDRAM                  36928                       # Total number of bytes read from DRAM
system.mem_ctrls.bytesReadWrQ                     896                       # Total number of bytes read from write queue
system.mem_ctrls.bytesWritten                    3072                       # Total number of bytes written to DRAM
system.mem_ctrls.bytesReadSys                   37824                       # Total read bytes from the system interface side
system.mem_ctrls.bytesWrittenSys                 5056                       # Total written bytes from the system interface side
system.mem_ctrls.avgRdBW                      1100.88                       # Average DRAM read bandwidth in MiByte/s
system.mem_ctrls.avgWrBW                        91.58                       # Average achieved write bandwidth in MiByte/s
system.mem_ctrls.avgRdBWSys                   1127.59                       # Average system read bandwidth in MiByte/s
system.mem_ctrls.avgWrBWSys                    150.73                       # Average system write bandwidth in MiByte/s
system.mem_ctrls.peakBW                      12800.00                       # Theoretical peak bandwidth in MiByte/s
system.mem_ctrls.busUtil                         9.32                       # Data bus utilization in percentage
system.mem_ctrls.busUtilRead                     8.60                       # Data bus utilization in percentage for reads
system.mem_ctrls.busUtilWrite                    0.72                       # Data bus utilization in percentage for writes
system.mem_ctrls.totGap                      33489750                       # Total gap between requests
system.mem_ctrls.avgGap                      49984.70                       # Average gap between requests
system.mem_ctrls.masterReadBytes::.cpu.inst        26368                       # Per-master bytes read from memory
system.mem_ctrls.masterReadBytes::.cpu.data        10560                       # Per-master bytes read from memory
system.mem_ctrls.masterWriteBytes::.writebacks         3072                       # Per-master bytes write to memory
system.mem_ctrls.masterReadRate::.cpu.inst 786072024.803243398666                       # Per-master bytes read from memory rate (Bytes/sec)
system.mem_ctrls.masterReadRate::.cpu.data 314810398.282852351665                       # Per-master bytes read from memory rate (Bytes/sec)
system.mem_ctrls.masterWriteRate::.writebacks 91581206.773193404078                       # Per-master bytes write to memory rate (Bytes/sec)
system.mem_ctrls.masterReadAccesses::.cpu.inst          426                       # Per-master read serviced memory accesses
system.mem_ctrls.masterReadAccesses::.cpu.data          165                       # Per-master read serviced memory accesses
system.mem_ctrls.masterWriteAccesses::.writebacks           79                       # Per-master write serviced memory accesses
system.mem_ctrls.masterReadTotalLat::.cpu.inst     10366250                       # Per-master read total memory access latency
system.mem_ctrls.masterReadTotalLat::.cpu.data      4257500                       # Per-master read total memory access latency
system.mem_ctrls.masterWriteTotalLat::.writebacks    226143000                       # Per-master write total memory access latency
system.mem_ctrls.masterReadAvgLat::.cpu.inst     24333.92                       # Per-master read average memory access latency
system.mem_ctrls.masterReadAvgLat::.cpu.data     25803.03                       # Per-master read average memory access latency
system.mem_ctrls.masterWriteAvgLat::.writebacks   2862569.62                       # Per-master write average memory access latency
system.mem_ctrls.pageHitRate                    77.59                       # Row buffer hit rate, read and write combined
system.mem_ctrls.rank1.actEnergy               342720                       # Energy for activate commands per rank (pJ)
system.mem_ctrls.rank1.preEnergy               170775                       # Energy for precharge commands per rank (pJ)
system.mem_ctrls.rank1.readEnergy             1549380                       # Energy for read commands per rank (pJ)
system.mem_ctrls.rank1.writeEnergy              62640                       # Energy for write commands per rank (pJ)
system.mem_ctrls.rank1.refreshEnergy     2458560.000000                       # Energy for refresh commands per rank (pJ)
system.mem_ctrls.rank1.actBackEnergy         14835960                       # Energy for active background per rank (pJ)
system.mem_ctrls.rank1.preBackEnergy           387840                       # Energy for precharge background per rank (pJ)
system.mem_ctrls.rank1.actPowerDownEnergy            0                       # Energy for active power-down per rank (pJ)
system.mem_ctrls.rank1.prePowerDownEnergy            0                       # Energy for precharge power-down per rank (pJ)
system.mem_ctrls.rank1.selfRefreshEnergy            0                       # Energy for self refresh per rank (pJ)
system.mem_ctrls.rank1.totalEnergy           19807875                       # Total energy per rank (pJ)
system.mem_ctrls.rank1.averagePower        590.504263                       # Core power per rank (mW)
system.mem_ctrls.rank1.totalIdleTime                0                       # Total Idle time Per DRAM Rank
system.mem_ctrls.rank1.memoryStateTime::IDLE       898750                       # Time in different power states
system.mem_ctrls.rank1.memoryStateTime::REF      1040000                       # Time in different power states
system.mem_ctrls.rank1.memoryStateTime::SREF            0                       # Time in different power states
system.mem_ctrls.rank1.memoryStateTime::PRE_PDN            0                       # Time in different power states
system.mem_ctrls.rank1.memoryStateTime::ACT     31605250                       # Time in different power states
system.mem_ctrls.rank1.memoryStateTime::ACT_PDN            0                       # Time in different power states
system.mem_ctrls.rank0.actEnergy               485520                       # Energy for activate commands per rank (pJ)
system.mem_ctrls.rank0.preEnergy               242880                       # Energy for precharge commands per rank (pJ)
system.mem_ctrls.rank0.readEnergy             2570400                       # Energy for read commands per rank (pJ)
system.mem_ctrls.rank0.writeEnergy             187920                       # Energy for write commands per rank (pJ)
system.mem_ctrls.rank0.refreshEnergy     2458560.000000                       # Energy for refresh commands per rank (pJ)
system.mem_ctrls.rank0.actBackEnergy         15102150                       # Energy for active background per rank (pJ)
system.mem_ctrls.rank0.preBackEnergy           163680                       # Energy for precharge background per rank (pJ)
system.mem_ctrls.rank0.actPowerDownEnergy            0                       # Energy for active power-down per rank (pJ)
system.mem_ctrls.rank0.prePowerDownEnergy            0                       # Energy for precharge power-down per rank (pJ)
system.mem_ctrls.rank0.selfRefreshEnergy            0                       # Energy for self refresh per rank (pJ)
system.mem_ctrls.rank0.totalEnergy           21211110                       # Total energy per rank (pJ)
system.mem_ctrls.rank0.averagePower        632.336931                       # Core power per rank (mW)
system.mem_ctrls.rank0.totalIdleTime                0                       # Total Idle time Per DRAM Rank
system.mem_ctrls.rank0.memoryStateTime::IDLE       273500                       # Time in different power states
system.mem_ctrls.rank0.memoryStateTime::REF      1040000                       # Time in different power states
system.mem_ctrls.rank0.memoryStateTime::SREF            0                       # Time in different power states
system.mem_ctrls.rank0.memoryStateTime::PRE_PDN            0                       # Time in different power states
system.mem_ctrls.rank0.memoryStateTime::ACT     32230500                       # Time in different power states
system.mem_ctrls.rank0.memoryStateTime::ACT_PDN            0                       # Time in different power states
system.cpu_clk_domain.clock                       250                       # Clock period in ticks
system.cpu.pwrStateResidencyTicks::ON        33544000                       # Cumulative time (in ticks) in various power states
system.cpu.icache.pwrStateResidencyTicks::UNDEFINED     33544000                       # Cumulative time (in ticks) in various power states
system.cpu.icache.demand_hits::.cpu.inst         5686                       # number of demand (read+write) hits
system.cpu.icache.demand_hits::total             5686                       # number of demand (read+write) hits
system.cpu.icache.overall_hits::.cpu.inst         5686                       # number of overall hits
system.cpu.icache.overall_hits::total            5686                       # number of overall hits
system.cpu.icache.demand_misses::.cpu.inst          426                       # number of demand (read+write) misses
system.cpu.icache.demand_misses::total            426                       # number of demand (read+write) misses
system.cpu.icache.overall_misses::.cpu.inst          426                       # number of overall misses
system.cpu.icache.overall_misses::total           426                       # number of overall misses
system.cpu.icache.demand_miss_latency::.cpu.inst     23933000                       # number of demand (read+write) miss cycles
system.cpu.icache.demand_miss_latency::total     23933000                       # number of demand (read+write) miss cycles
system.cpu.icache.overall_miss_latency::.cpu.inst     23933000                       # number of overall miss cycles
system.cpu.icache.overall_miss_latency::total     23933000                       # number of overall miss cycles
system.cpu.icache.demand_accesses::.cpu.inst         6112                       # number of demand (read+write) accesses
system.cpu.icache.demand_accesses::total         6112                       # number of demand (read+write) accesses
system.cpu.icache.overall_accesses::.cpu.inst         6112                       # number of overall (read+write) accesses
system.cpu.icache.overall_accesses::total         6112                       # number of overall (read+write) accesses
system.cpu.icache.demand_miss_rate::.cpu.inst     0.069699                       # miss rate for demand accesses
system.cpu.icache.demand_miss_rate::total     0.069699                       # miss rate for demand accesses
system.cpu.icache.overall_miss_rate::.cpu.inst     0.069699                       # miss rate for overall accesses
system.cpu.icache.overall_miss_rate::total     0.069699                       # miss rate for overall accesses
system.cpu.icache.demand_avg_miss_latency::.cpu.inst 56180.751174                       # average overall miss latency
system.cpu.icache.demand_avg_miss_latency::total 56180.751174                       # average overall miss latency
system.cpu.icache.overall_avg_miss_latency::.cpu.inst 56180.751174                       # average overall miss latency
system.cpu.icache.overall_avg_miss_latency::total 56180.751174                       # average overall miss latency
system.cpu.icache.blocked_cycles::no_mshrs            0                       # number of cycles access was blocked
system.cpu.icache.blocked_cycles::no_targets            0                       # number of cycles access was blocked
system.cpu.icache.blocked::no_mshrs                 0                       # number of cycles access was blocked
system.cpu.icache.blocked::no_targets               0                       # number of cycles access was blocked
system.cpu.icache.avg_blocked_cycles::no_mshrs          nan                       # average number of cycles each access was blocked
system.cpu.icache.avg_blocked_cycles::no_targets          nan                       # average number of cycles each access was blocked
system.cpu.icache.writebacks::.writebacks           83                       # number of writebacks
system.cpu.icache.writebacks::total                83                       # number of writebacks
system.cpu.icache.demand_mshr_misses::.cpu.inst          426                       # number of demand (read+write) MSHR misses
system.cpu.icache.demand_mshr_misses::total          426                       # number of demand (read+write) MSHR misses
system.cpu.icache.overall_mshr_misses::.cpu.inst          426                       # number of overall MSHR misses
system.cpu.icache.overall_mshr_misses::total          426                       # number of overall MSHR misses
system.cpu.icache.demand_mshr_miss_latency::.cpu.inst     23720000                       # number of demand (read+write) MSHR miss cycles
system.cpu.icache.demand_mshr_miss_latency::total     23720000                       # number of demand (read+write) MSHR miss cycles
system.cpu.icache.overall_mshr_miss_latency::.cpu.inst     23720000                       # number of overall MSHR miss cycles
system.cpu.icache.overall_mshr_miss_latency::total     23720000                       # number of overall MSHR miss cycles
system.cpu.icache.demand_mshr_miss_rate::.cpu.inst     0.069699                       # mshr miss rate for demand accesses
system.cpu.icache.demand_mshr_miss_rate::total     0.069699                       # mshr miss rate for demand accesses
system.cpu.icache.overall_mshr_miss_rate::.cpu.inst     0.069699                       # mshr miss rate for overall accesses
system.cpu.icache.overall_mshr_miss_rate::total     0.069699                       # mshr miss rate for overall accesses
system.cpu.icache.demand_avg_mshr_miss_latency::.cpu.inst 55680.751174                       # average overall mshr miss latency
system.cpu.icache.demand_avg_mshr_miss_latency::total 55680.751174                       # average overall mshr miss latency
system.cpu.icache.overall_avg_mshr_miss_latency::.cpu.inst 55680.751174                       # average overall mshr miss latency
system.cpu.icache.overall_avg_mshr_miss_latency::total 55680.751174                       # average overall mshr miss latency
system.cpu.icache.replacements                     83                       # number of replacements
system.cpu.icache.ReadReq_hits::.cpu.inst         5686                       # number of ReadReq hits
system.cpu.icache.ReadReq_hits::total            5686                       # number of ReadReq hits
system.cpu.icache.ReadReq_misses::.cpu.inst          426                       # number of ReadReq misses
system.cpu.icache.ReadReq_misses::total           426                       # number of ReadReq misses
system.cpu.icache.ReadReq_miss_latency::.cpu.inst     23933000                       # number of ReadReq miss cycles
system.cpu.icache.ReadReq_miss_latency::total     23933000                       # number of ReadReq miss cycles
system.cpu.icache.ReadReq_accesses::.cpu.inst         6112                       # number of ReadReq accesses(hits+misses)
system.cpu.icache.ReadReq_accesses::total         6112                       # number of ReadReq accesses(hits+misses)
system.cpu.icache.ReadReq_miss_rate::.cpu.inst     0.069699                       # miss rate for ReadReq accesses
system.cpu.icache.ReadReq_miss_rate::total     0.069699                       # miss rate for ReadReq accesses
system.cpu.icache.ReadReq_avg_miss_latency::.cpu.inst 56180.751174                       # average ReadReq miss latency
system.cpu.icache.ReadReq_avg_miss_latency::total 56180.751174                       # average ReadReq miss latency
system.cpu.icache.ReadReq_mshr_misses::.cpu.inst          426                       # number of ReadReq MSHR misses
system.cpu.icache.ReadReq_mshr_misses::total          426                       # number of ReadReq MSHR misses
system.cpu.icache.ReadReq_mshr_miss_latency::.cpu.inst     23720000                       # number of ReadReq MSHR miss cycles
system.cpu.icache.ReadReq_mshr_miss_latency::total     23720000                       # number of ReadReq MSHR miss cycles
system.cpu.icache.ReadReq_mshr_miss_rate::.cpu.inst     0.069699                       # mshr miss rate for ReadReq accesses
system.cpu.icache.ReadReq_mshr_miss_rate::total     0.069699                       # mshr miss rate for ReadReq accesses
system.cpu.icache.ReadReq_avg_mshr_miss_latency::.cpu.inst 55680.751174                       # average ReadReq mshr miss latency
system.cpu.icache.ReadReq_avg_mshr_miss_latency::total 55680.751174                       # average ReadReq mshr miss latency
system.cpu.icache.tags.pwrStateResidencyTicks::UNDEFINED     33544000                       # Cumulative time (in ticks) in various power states
system.cpu.icache.tags.tagsinuse           194.991031                       # Cycle average of tags in use
system.cpu.icache.tags.total_refs                6112                       # Total number of references to valid blocks.
system.cpu.icache.tags.sampled_refs               426                       # Sample count of references to valid blocks.
system.cpu.icache.tags.avg_refs             14.347418                       # Average number of references to valid blocks.
system.cpu.icache.tags.warmup_cycle             77000                       # Cycle when the warmup percentage was hit.
system.cpu.icache.tags.occ_blocks::.cpu.inst   194.991031                       # Average occupied blocks per requestor
system.cpu.icache.tags.occ_percent::.cpu.inst     0.380842                       # Average percentage of cache occupancy
system.cpu.icache.tags.occ_percent::total     0.380842                       # Average percentage of cache occupancy
system.cpu.icache.tags.occ_task_id_blocks::1024          343                       # Occupied blocks per task id
system.cpu.icache.tags.age_task_id_blocks_1024::0          109                       # Occupied blocks per task id
system.cpu.icache.tags.age_task_id_blocks_1024::1          234                       # Occupied blocks per task id
system.cpu.icache.tags.occ_task_id_percent::1024     0.669922                       # Percentage of cache occupancy per task id
system.cpu.icache.tags.tag_accesses             12650                       # Number of tag accesses
system.cpu.icache.tags.data_accesses            12650                       # Number of data accesses
system.cpu.dtb.walker.pwrStateResidencyTicks::UNDEFINED     33544000                       # Cumulative time (in ticks) in various power states
system.cpu.dtb.stage2_mmu.stage2_tlb.walker.pwrStateResidencyTicks::UNDEFINED     33544000                       # Cumulative time (in ticks) in various power states
system.cpu.dcache.pwrStateResidencyTicks::UNDEFINED     33544000                       # Cumulative time (in ticks) in various power states
system.cpu.dcache.demand_hits::.cpu.data         5129                       # number of demand (read+write) hits
system.cpu.dcache.demand_hits::total             5129                       # number of demand (read+write) hits
system.cpu.dcache.overall_hits::.cpu.data         5145                       # number of overall hits
system.cpu.dcache.overall_hits::total            5145                       # number of overall hits
system.cpu.dcache.demand_misses::.cpu.data          210                       # number of demand (read+write) misses
system.cpu.dcache.demand_misses::total            210                       # number of demand (read+write) misses
system.cpu.dcache.overall_misses::.cpu.data          224                       # number of overall misses
system.cpu.dcache.overall_misses::total           224                       # number of overall misses
system.cpu.dcache.demand_miss_latency::.cpu.data     11986000                       # number of demand (read+write) miss cycles
system.cpu.dcache.demand_miss_latency::total     11986000                       # number of demand (read+write) miss cycles
system.cpu.dcache.overall_miss_latency::.cpu.data     11986000                       # number of overall miss cycles
system.cpu.dcache.overall_miss_latency::total     11986000                       # number of overall miss cycles
system.cpu.dcache.demand_accesses::.cpu.data         5339                       # number of demand (read+write) accesses
system.cpu.dcache.demand_accesses::total         5339                       # number of demand (read+write) accesses
system.cpu.dcache.overall_accesses::.cpu.data         5369                       # number of overall (read+write) accesses
system.cpu.dcache.overall_accesses::total         5369                       # number of overall (read+write) accesses
system.cpu.dcache.demand_miss_rate::.cpu.data     0.039333                       # miss rate for demand accesses
system.cpu.dcache.demand_miss_rate::total     0.039333                       # miss rate for demand accesses
system.cpu.dcache.overall_miss_rate::.cpu.data     0.041721                       # miss rate for overall accesses
system.cpu.dcache.overall_miss_rate::total     0.041721                       # miss rate for overall accesses
system.cpu.dcache.demand_avg_miss_latency::.cpu.data 57076.190476                       # average overall miss latency
system.cpu.dcache.demand_avg_miss_latency::total 57076.190476                       # average overall miss latency
system.cpu.dcache.overall_avg_miss_latency::.cpu.data 53508.928571                       # average overall miss latency
system.cpu.dcache.overall_avg_miss_latency::total 53508.928571                       # average overall miss latency
system.cpu.dcache.blocked_cycles::no_mshrs            0                       # number of cycles access was blocked
system.cpu.dcache.blocked_cycles::no_targets            0                       # number of cycles access was blocked
system.cpu.dcache.blocked::no_mshrs                 0                       # number of cycles access was blocked
system.cpu.dcache.blocked::no_targets               0                       # number of cycles access was blocked
system.cpu.dcache.avg_blocked_cycles::no_mshrs          nan                       # average number of cycles each access was blocked
system.cpu.dcache.avg_blocked_cycles::no_targets          nan                       # average number of cycles each access was blocked
system.cpu.dcache.demand_mshr_hits::.cpu.data           56                       # number of demand (read+write) MSHR hits
system.cpu.dcache.demand_mshr_hits::total           56                       # number of demand (read+write) MSHR hits
system.cpu.dcache.overall_mshr_hits::.cpu.data           56                       # number of overall MSHR hits
system.cpu.dcache.overall_mshr_hits::total           56                       # number of overall MSHR hits
system.cpu.dcache.demand_mshr_misses::.cpu.data          154                       # number of demand (read+write) MSHR misses
system.cpu.dcache.demand_mshr_misses::total          154                       # number of demand (read+write) MSHR misses
system.cpu.dcache.overall_mshr_misses::.cpu.data          163                       # number of overall MSHR misses
system.cpu.dcache.overall_mshr_misses::total          163                       # number of overall MSHR misses
system.cpu.dcache.demand_mshr_miss_latency::.cpu.data      8827750                       # number of demand (read+write) MSHR miss cycles
system.cpu.dcache.demand_mshr_miss_latency::total      8827750                       # number of demand (read+write) MSHR miss cycles
system.cpu.dcache.overall_mshr_miss_latency::.cpu.data      9361750                       # number of overall MSHR miss cycles
system.cpu.dcache.overall_mshr_miss_latency::total      9361750                       # number of overall MSHR miss cycles
system.cpu.dcache.demand_mshr_miss_rate::.cpu.data     0.028844                       # mshr miss rate for demand accesses
system.cpu.dcache.demand_mshr_miss_rate::total     0.028844                       # mshr miss rate for demand accesses
system.cpu.dcache.overall_mshr_miss_rate::.cpu.data     0.030359                       # mshr miss rate for overall accesses
system.cpu.dcache.overall_mshr_miss_rate::total     0.030359                       # mshr miss rate for overall accesses
system.cpu.dcache.demand_avg_mshr_miss_latency::.cpu.data 57323.051948                       # average overall mshr miss latency
system.cpu.dcache.demand_avg_mshr_miss_latency::total 57323.051948                       # average overall mshr miss latency
system.cpu.dcache.overall_avg_mshr_miss_latency::.cpu.data 57434.049080                       # average overall mshr miss latency
system.cpu.dcache.overall_avg_mshr_miss_latency::total 57434.049080                       # average overall mshr miss latency
system.cpu.dcache.replacements                      0                       # number of replacements
system.cpu.dcache.ReadReq_hits::.cpu.data         2879                       # number of ReadReq hits
system.cpu.dcache.ReadReq_hits::total            2879                       # number of ReadReq hits
system.cpu.dcache.ReadReq_misses::.cpu.data           90                       # number of ReadReq misses
system.cpu.dcache.ReadReq_misses::total            90                       # number of ReadReq misses
system.cpu.dcache.ReadReq_miss_latency::.cpu.data      5255500                       # number of ReadReq miss cycles
system.cpu.dcache.ReadReq_miss_latency::total      5255500                       # number of ReadReq miss cycles
system.cpu.dcache.ReadReq_accesses::.cpu.data         2969                       # number of ReadReq accesses(hits+misses)
system.cpu.dcache.ReadReq_accesses::total         2969                       # number of ReadReq accesses(hits+misses)
system.cpu.dcache.ReadReq_miss_rate::.cpu.data     0.030313                       # miss rate for ReadReq accesses
system.cpu.dcache.ReadReq_miss_rate::total     0.030313                       # miss rate for ReadReq accesses
system.cpu.dcache.ReadReq_avg_miss_latency::.cpu.data 58394.444444                       # average ReadReq miss latency
system.cpu.dcache.ReadReq_avg_miss_latency::total 58394.444444                       # average ReadReq miss latency
system.cpu.dcache.ReadReq_mshr_hits::.cpu.data            6                       # number of ReadReq MSHR hits
system.cpu.dcache.ReadReq_mshr_hits::total            6                       # number of ReadReq MSHR hits
system.cpu.dcache.ReadReq_mshr_misses::.cpu.data           84                       # number of ReadReq MSHR misses
system.cpu.dcache.ReadReq_mshr_misses::total           84                       # number of ReadReq MSHR misses
system.cpu.dcache.ReadReq_mshr_miss_latency::.cpu.data      4905500                       # number of ReadReq MSHR miss cycles
system.cpu.dcache.ReadReq_mshr_miss_latency::total      4905500                       # number of ReadReq MSHR miss cycles
system.cpu.dcache.ReadReq_mshr_miss_rate::.cpu.data     0.028292                       # mshr miss rate for ReadReq accesses
system.cpu.dcache.ReadReq_mshr_miss_rate::total     0.028292                       # mshr miss rate for ReadReq accesses
system.cpu.dcache.ReadReq_avg_mshr_miss_latency::.cpu.data 58398.809524                       # average ReadReq mshr miss latency
system.cpu.dcache.ReadReq_avg_mshr_miss_latency::total 58398.809524                       # average ReadReq mshr miss latency
system.cpu.dcache.WriteReq_hits::.cpu.data         2250                       # number of WriteReq hits
system.cpu.dcache.WriteReq_hits::total           2250                       # number of WriteReq hits
system.cpu.dcache.WriteReq_misses::.cpu.data          120                       # number of WriteReq misses
system.cpu.dcache.WriteReq_misses::total          120                       # number of WriteReq misses
system.cpu.dcache.WriteReq_miss_latency::.cpu.data      6730500                       # number of WriteReq miss cycles
system.cpu.dcache.WriteReq_miss_latency::total      6730500                       # number of WriteReq miss cycles
system.cpu.dcache.WriteReq_accesses::.cpu.data         2370                       # number of WriteReq accesses(hits+misses)
system.cpu.dcache.WriteReq_accesses::total         2370                       # number of WriteReq accesses(hits+misses)
system.cpu.dcache.WriteReq_miss_rate::.cpu.data     0.050633                       # miss rate for WriteReq accesses
system.cpu.dcache.WriteReq_miss_rate::total     0.050633                       # miss rate for WriteReq accesses
system.cpu.dcache.WriteReq_avg_miss_latency::.cpu.data 56087.500000                       # average WriteReq miss latency
system.cpu.dcache.WriteReq_avg_miss_latency::total 56087.500000                       # average WriteReq miss latency
system.cpu.dcache.WriteReq_mshr_hits::.cpu.data           50                       # number of WriteReq MSHR hits
system.cpu.dcache.WriteReq_mshr_hits::total           50                       # number of WriteReq MSHR hits
system.cpu.dcache.WriteReq_mshr_misses::.cpu.data           70                       # number of WriteReq MSHR misses
system.cpu.dcache.WriteReq_mshr_misses::total           70                       # number of WriteReq MSHR misses
system.cpu.dcache.WriteReq_mshr_miss_latency::.cpu.data      3922250                       # number of WriteReq MSHR miss cycles
system.cpu.dcache.WriteReq_mshr_miss_latency::total      3922250                       # number of WriteReq MSHR miss cycles
system.cpu.dcache.WriteReq_mshr_miss_rate::.cpu.data     0.029536                       # mshr miss rate for WriteReq accesses
system.cpu.dcache.WriteReq_mshr_miss_rate::total     0.029536                       # mshr miss rate for WriteReq accesses
system.cpu.dcache.WriteReq_avg_mshr_miss_latency::.cpu.data 56032.142857                       # average WriteReq mshr miss latency
system.cpu.dcache.WriteReq_avg_mshr_miss_latency::total 56032.142857                       # average WriteReq mshr miss latency
system.cpu.dcache.SoftPFReq_hits::.cpu.data           16                       # number of SoftPFReq hits
system.cpu.dcache.SoftPFReq_hits::total            16                       # number of SoftPFReq hits
system.cpu.dcache.SoftPFReq_misses::.cpu.data           14                       # number of SoftPFReq misses
system.cpu.dcache.SoftPFReq_misses::total           14                       # number of SoftPFReq misses
system.cpu.dcache.SoftPFReq_accesses::.cpu.data           30                       # number of SoftPFReq accesses(hits+misses)
system.cpu.dcache.SoftPFReq_accesses::total           30                       # number of SoftPFReq accesses(hits+misses)
system.cpu.dcache.SoftPFReq_miss_rate::.cpu.data     0.466667                       # miss rate for SoftPFReq accesses
system.cpu.dcache.SoftPFReq_miss_rate::total     0.466667                       # miss rate for SoftPFReq accesses
system.cpu.dcache.SoftPFReq_mshr_misses::.cpu.data            9                       # number of SoftPFReq MSHR misses
system.cpu.dcache.SoftPFReq_mshr_misses::total            9                       # number of SoftPFReq MSHR misses
system.cpu.dcache.SoftPFReq_mshr_miss_latency::.cpu.data       534000                       # number of SoftPFReq MSHR miss cycles
system.cpu.dcache.SoftPFReq_mshr_miss_latency::total       534000                       # number of SoftPFReq MSHR miss cycles
system.cpu.dcache.SoftPFReq_mshr_miss_rate::.cpu.data     0.300000                       # mshr miss rate for SoftPFReq accesses
system.cpu.dcache.SoftPFReq_mshr_miss_rate::total     0.300000                       # mshr miss rate for SoftPFReq accesses
system.cpu.dcache.SoftPFReq_avg_mshr_miss_latency::.cpu.data 59333.333333                       # average SoftPFReq mshr miss latency
system.cpu.dcache.SoftPFReq_avg_mshr_miss_latency::total 59333.333333                       # average SoftPFReq mshr miss latency
system.cpu.dcache.LoadLockedReq_hits::.cpu.data           22                       # number of LoadLockedReq hits
system.cpu.dcache.LoadLockedReq_hits::total           22                       # number of LoadLockedReq hits
system.cpu.dcache.LoadLockedReq_misses::.cpu.data            2                       # number of LoadLockedReq misses
system.cpu.dcache.LoadLockedReq_misses::total            2                       # number of LoadLockedReq misses
system.cpu.dcache.LoadLockedReq_miss_latency::.cpu.data       104000                       # number of LoadLockedReq miss cycles
system.cpu.dcache.LoadLockedReq_miss_latency::total       104000                       # number of LoadLockedReq miss cycles
system.cpu.dcache.LoadLockedReq_accesses::.cpu.data           24                       # number of LoadLockedReq accesses(hits+misses)
system.cpu.dcache.LoadLockedReq_accesses::total           24                       # number of LoadLockedReq accesses(hits+misses)
system.cpu.dcache.LoadLockedReq_miss_rate::.cpu.data     0.083333                       # miss rate for LoadLockedReq accesses
system.cpu.dcache.LoadLockedReq_miss_rate::total     0.083333                       # miss rate for LoadLockedReq accesses
system.cpu.dcache.LoadLockedReq_avg_miss_latency::.cpu.data        52000                       # average LoadLockedReq miss latency
system.cpu.dcache.LoadLockedReq_avg_miss_latency::total        52000                       # average LoadLockedReq miss latency
system.cpu.dcache.LoadLockedReq_mshr_misses::.cpu.data            2                       # number of LoadLockedReq MSHR misses
system.cpu.dcache.LoadLockedReq_mshr_misses::total            2                       # number of LoadLockedReq MSHR misses
system.cpu.dcache.LoadLockedReq_mshr_miss_latency::.cpu.data       103000                       # number of LoadLockedReq MSHR miss cycles
system.cpu.dcache.LoadLockedReq_mshr_miss_latency::total       103000                       # number of LoadLockedReq MSHR miss cycles
system.cpu.dcache.LoadLockedReq_mshr_miss_rate::.cpu.data     0.083333                       # mshr miss rate for LoadLockedReq accesses
system.cpu.dcache.LoadLockedReq_mshr_miss_rate::total     0.083333                       # mshr miss rate for LoadLockedReq accesses
system.cpu.dcache.LoadLockedReq_avg_mshr_miss_latency::.cpu.data        51500                       # average LoadLockedReq mshr miss latency
system.cpu.dcache.LoadLockedReq_avg_mshr_miss_latency::total        51500                       # average LoadLockedReq mshr miss latency
system.cpu.dcache.StoreCondReq_hits::.cpu.data           24                       # number of StoreCondReq hits
system.cpu.dcache.StoreCondReq_hits::total           24                       # number of StoreCondReq hits
system.cpu.dcache.StoreCondReq_accesses::.cpu.data           24                       # number of StoreCondReq accesses(hits+misses)
system.cpu.dcache.StoreCondReq_accesses::total           24                       # number of StoreCondReq accesses(hits+misses)
system.cpu.dcache.tags.pwrStateResidencyTicks::UNDEFINED     33544000                       # Cumulative time (in ticks) in various power states
system.cpu.dcache.tags.tagsinuse           101.544749                       # Cycle average of tags in use
system.cpu.dcache.tags.total_refs                5356                       # Total number of references to valid blocks.
system.cpu.dcache.tags.sampled_refs               165                       # Sample count of references to valid blocks.
system.cpu.dcache.tags.avg_refs             32.460606                       # Average number of references to valid blocks.
system.cpu.dcache.tags.warmup_cycle            143000                       # Cycle when the warmup percentage was hit.
system.cpu.dcache.tags.occ_blocks::.cpu.data   101.544749                       # Average occupied blocks per requestor
system.cpu.dcache.tags.occ_percent::.cpu.data     0.099165                       # Average percentage of cache occupancy
system.cpu.dcache.tags.occ_percent::total     0.099165                       # Average percentage of cache occupancy
system.cpu.dcache.tags.occ_task_id_blocks::1024          165                       # Occupied blocks per task id
system.cpu.dcache.tags.age_task_id_blocks_1024::0           19                       # Occupied blocks per task id
system.cpu.dcache.tags.age_task_id_blocks_1024::1          146                       # Occupied blocks per task id
system.cpu.dcache.tags.occ_task_id_percent::1024     0.161133                       # Percentage of cache occupancy per task id
system.cpu.dcache.tags.tag_accesses             10999                       # Number of tag accesses
system.cpu.dcache.tags.data_accesses            10999                       # Number of data accesses
system.cpu.itb.walker.pwrStateResidencyTicks::UNDEFINED     33544000                       # Cumulative time (in ticks) in various power states
system.cpu.itb.stage2_mmu.stage2_tlb.walker.pwrStateResidencyTicks::UNDEFINED     33544000                       # Cumulative time (in ticks) in various power states

---------- End Simulation Statistics   ----------
